IEEE8500test.dss
Clear

New Circuit.IEEE8500 pu=1.05 R1=0 X1=0.001 R0=0 X0=0.001
New Line._hvmv_sub_lsb_r20185 Phases=3 bus1=_hvmv_sub_lsb.1.2.3 bus2=r20185.1.2.3 Units=km Length=0.56093632 Rmatrix=[ 0.231587194504    0.0700435386612    0.0720001785145| 0.0700435386612     0.228666164142    0.0704704416869| 0.0720001785145    0.0704704416869     0.232502123536|] Xmatrix=[0.651533731562     0.289150786674     0.261793838723| 0.289150786674     0.667606083463     0.305302701155| 0.261793838723     0.305302701155     0.646541840926|] Cmatrix=[0                  0                  0| 0                  0                  0| 0                  0                  0|]
New Line.r18242_l2804247 Phases=1 bus1=r18242.2 bus2=l2804247.2 Units=km Length=4.4428198 Rmatrix=1.6669748 Xmatrix=0.9255466 Cmatrix=0
New Line.m1142843_regxfmr_190_7361 Phases=3 bus1=m1142843.1.2.3 bus2=regxfmr_190_7361.1.2.3 Units=km Length=4.2517339 Rmatrix=[0.950264527134     0.124088214881     0.128073298405| 0.124088214881     0.944272463769     0.124975398699| 0.128073298405     0.124975398699      0.95212871242|] Xmatrix=[0.805764123785     0.379375441658      0.35642501931| 0.379375441658     0.815093070209     0.396624342291|  0.35642501931     0.396624342291     0.802882106821|] Cmatrix=[0                  0                  0| 0                  0                  0| 0                  0                  0|]
New Line.m1142843_regxfmr_190_8581 Phases=3 bus1=m1142843.1.2.3 bus2=regxfmr_190_8581.1.2.3 Units=km Length=3.8055905 Rmatrix=[0.270594472313     0.109864337969     0.113448509101| 0.109864337969     0.265213717309     0.110659709637| 0.113448509101     0.110659709637     0.272272145373|] Xmatrix=[0.696213688548     0.333247106594     0.308028000686| 0.333247106594     0.708958634804     0.349982902372| 0.308028000686     0.349982902372     0.692263801214|] Cmatrix=[0                  0                  0| 0                  0                  0| 0                  0                  0|]
New Line.r42247_m1142843 Phases=3 bus1=r42247.1.2.3 bus2=m1142843.1.2.3 Units=km Length=0.18848443 Rmatrix=[ 0.27868602791     0.118429537286     0.122261956438| 0.118429537286     0.272926498138      0.11928164866| 0.122261956438      0.11928164866     0.280479157351|] Xmatrix=[0.723351446649     0.359890244067     0.335952701031| 0.359890244067     0.734147996352     0.376932603039| 0.335952701031     0.376932603039     0.720010496422|] Cmatrix=[0                  0                  0| 0                  0                  0| 0                  0                  0|]
New Line.190_8593_m1047521 Phases=3 bus1=190_8593.1.2.3 bus2=m1047521.1.2.3 Units=km Length=0.53424652 Rmatrix=[0.661504782366     0.137241630243     0.141800081849| 0.137241630243     0.654646643053     0.138258722882| 0.141800081849     0.138258722882     0.663637782325|] Xmatrix=[0.870190432737     0.387851659891     0.365429707923| 0.387851659891       0.8787553708     0.405193139324| 0.365429707923     0.405193139324     0.867548387372|] Cmatrix=[0                  0                  0| 0                  0                  0| 0                  0                  0|]
New Line.m1047521_l3312692 Phases=1 bus1=m1047521.1 bus2=l3312692.1 Units=km Length=8.0389931 Rmatrix=1.1331257 Xmatrix=0.89593098 Cmatrix=0
New Line.m1047521_l3197647 Phases=1 bus1=m1047521.1 bus2=l3197647.1 Units=km Length=1.4953258 Rmatrix=1.5937955 Xmatrix=0.92114068 Cmatrix=0
New Line.190_8581_r42246 Phases=3 bus1=190_8581.1.2.3 bus2=r42246.1.2.3 Units=km Length=2.5941805 Rmatrix=[ 0.29871511558     0.111724700376     0.115375296772| 0.111724700376     0.293233601679     0.112535202969| 0.115375296772     0.112535202969     0.300423833971|] Xmatrix=[0.708714803685     0.336880317462     0.311875980288| 0.336880317462     0.721155707832     0.353647579672| 0.311875980288     0.353647579672      0.70486002406|] Cmatrix=[0                  0                  0| 0                  0                  0| 0                  0                  0|]
New Line.r20185_r42247 Phases=3 bus1=r20185.1.2.3 bus2=r42247.1.2.3 Units=km Length=2.0210105 Rmatrix=[0.271463789684     0.109733388072     0.113313288712| 0.109733388072     0.266089446932     0.110527812568| 0.113313288712     0.110527812568      0.27313946622|] Xmatrix=[0.696575736871     0.332849919269     0.307660872284| 0.332849919269     0.709305491654     0.349565769508| 0.307660872284     0.349565769508     0.692630560265|] Cmatrix=[0                  0                  0| 0                  0                  0| 0                  0                  0|]
New Line.r42246_regxfmr_190_8593 Phases=3 bus1=r42246.1.2.3 bus2=regxfmr_190_8593.1.2.3 Units=km Length=0.44200629 Rmatrix=[0.660870000457     0.137499000165     0.142066000149| 0.137499000165     0.653999000093     0.138518000059| 0.142066000149     0.138518000059     0.663007000046|] Xmatrix=[0.869947000132     0.388579000108     0.366115000094| 0.388579000108     0.878528000067      0.40595300006| 0.366115000094      0.40595300006     0.867300000051|] Cmatrix=[0                  0                  0| 0                  0                  0| 0                  0                  0|]
New Line.190_7361_r18242 Phases=3 bus1=190_7361.1.2.3 bus2=r18242.1.2.3 Units=km Length=1.784907 Rmatrix=[ 1.67818804716     0.139972780784     0.144404988954| 0.139972780784      1.67151343551     0.140962299448| 0.144404988954     0.140962299448      1.68026080113|] Xmatrix=[0.920450147641     0.430961500691       0.4105458717| 0.430961500691     0.925960958184     0.448784966096|   0.4105458717     0.448784966096     0.918761742944|] Cmatrix=[0                  0                  0| 0                  0                  0| 0                  0                  0|]
New Reactor.HVMV_Sub_HSB Bus1=SourceBus Bus2=HVMV_Sub_HSB R=0 X=14.7983 Normamps=400 Emergamps=400
New Transformer.HVMV_Sub Phases=3 Windings=2 Buses=[HVMV_Sub_HSB regxfmr_HVMV_Sub_LSB.1.2.3.0] Conns=[delta wye] kVs=[115         12.47] kVAs=[27500  27500] XHL=15.51 %Noloadloss=0 %imag=0 sub=y Wdg=1 %R=0.67202 Wdg=2 %R=0.67202
New Transformer.FEEDER_REGA Phases=1 Windings=2 Buses=[regxfmr_HVMV_Sub_LSB.1 _HVMV_Sub_LSB.1] Conns=[wye wye] kVs=[7.2         7.2] kVAs=[27500  27500] XHL=0.1 %Loadloss=0.001 %Noloadloss=0 %imag=0 Ppm_Antifloat=0 MaxTap=1.1 MinTap=0.9
New Transformer.FEEDER_REGB Phases=1 Windings=2 Buses=[regxfmr_HVMV_Sub_LSB.2 _HVMV_Sub_LSB.2] Conns=[wye wye] kVs=[7.2         7.2] kVAs=[27500  27500] XHL=0.1 %Loadloss=0.001 %Noloadloss=0 %imag=0 Ppm_Antifloat=0 MaxTap=1.1 MinTap=0.9
New Transformer.FEEDER_REGC Phases=1 Windings=2 Buses=[regxfmr_HVMV_Sub_LSB.3 _HVMV_Sub_LSB.3] Conns=[wye wye] kVs=[7.2         7.2] kVAs=[27500  27500] XHL=0.1 %Loadloss=0.001 %Noloadloss=0 %imag=0 Ppm_Antifloat=0 MaxTap=1.1 MinTap=0.9
New Transformer.VREG2_A Phases=1 Windings=2 Buses=[regxfmr_190_8593.1 190_8593.1] Conns=[wye wye] kVs=[7.2         7.2] kVAs=[10000  10000] XHL=0.1 %Loadloss=0.01 %Noloadloss=0 %imag=0 Ppm_Antifloat=0 MaxTap=1.1 MinTap=0.9
New Transformer.VREG2_B Phases=1 Windings=2 Buses=[regxfmr_190_8593.2 190_8593.2] Conns=[wye wye] kVs=[7.2         7.2] kVAs=[10000  10000] XHL=0.1 %Loadloss=0.01 %Noloadloss=0 %imag=0 Ppm_Antifloat=0 MaxTap=1.1 MinTap=0.9
New Transformer.VREG2_C Phases=1 Windings=2 Buses=[regxfmr_190_8593.3 190_8593.3] Conns=[wye wye] kVs=[7.2         7.2] kVAs=[10000  10000] XHL=0.1 %Loadloss=0.01 %Noloadloss=0 %imag=0 Ppm_Antifloat=0 MaxTap=1.1 MinTap=0.9
New Transformer.VREG3_A Phases=1 Windings=2 Buses=[regxfmr_190_8581.1 190_8581.1] Conns=[wye wye] kVs=[7.2         7.2] kVAs=[10000  10000] XHL=0.1 %Loadloss=0.01 %Noloadloss=0 %imag=0 Ppm_Antifloat=0 MaxTap=1.1 MinTap=0.9
New Transformer.VREG3_B Phases=1 Windings=2 Buses=[regxfmr_190_8581.2 190_8581.2] Conns=[wye wye] kVs=[7.2         7.2] kVAs=[10000  10000] XHL=0.1 %Loadloss=0.01 %Noloadloss=0 %imag=0 Ppm_Antifloat=0 MaxTap=1.1 MinTap=0.9
New Transformer.VREG3_C Phases=1 Windings=2 Buses=[regxfmr_190_8581.3 190_8581.3] Conns=[wye wye] kVs=[7.2         7.2] kVAs=[10000  10000] XHL=0.1 %Loadloss=0.01 %Noloadloss=0 %imag=0 Ppm_Antifloat=0 MaxTap=1.1 MinTap=0.9
New Transformer.VREG4_A Phases=1 Windings=2 Buses=[regxfmr_190_7361.1 190_7361.1] Conns=[wye wye] kVs=[7.2         7.2] kVAs=[10000  10000] XHL=0.1 %Loadloss=0.01 %Noloadloss=0 %imag=0 Ppm_Antifloat=0 MaxTap=1.1 MinTap=0.9
New Transformer.VREG4_B Phases=1 Windings=2 Buses=[regxfmr_190_7361.2 190_7361.2] Conns=[wye wye] kVs=[7.2         7.2] kVAs=[10000  10000] XHL=0.1 %Loadloss=0.01 %Noloadloss=0 %imag=0 Ppm_Antifloat=0 MaxTap=1.1 MinTap=0.9
New Transformer.VREG4_C Phases=1 Windings=2 Buses=[regxfmr_190_7361.3 190_7361.3] Conns=[wye wye] kVs=[7.2         7.2] kVAs=[10000  10000] XHL=0.1 %Loadloss=0.01 %Noloadloss=0 %imag=0 Ppm_Antifloat=0 MaxTap=1.1 MinTap=0.9


! Let DSS estimate the voltage bases
Set voltagebases=[115 12.47 0.48 0.208]
Calcvoltagebases     ! This also establishes the bus list

Buscoords IEEE8500test_buscoords.csv


set maxiterations=1000
